Version 4
SHEET 1 880 680
WIRE 208 -80 208 -144
WIRE 208 32 208 0
WIRE 256 32 208 32
WIRE 304 48 304 16
WIRE 64 80 16 80
WIRE 16 112 16 80
WIRE 256 112 256 32
WIRE 304 144 304 128
WIRE 304 144 288 144
WIRE 336 144 304 144
WIRE 608 144 608 112
WIRE 720 144 720 112
WIRE 304 160 304 144
WIRE 64 208 -32 208
WIRE -32 224 -32 208
WIRE 400 224 400 176
WIRE 304 256 304 240
WIRE 608 256 608 224
WIRE 720 256 720 224
WIRE -32 336 -32 304
WIRE 400 352 400 304
FLAG 608 256 0
FLAG 608 112 VCC
FLAG 160 208 VSS
FLAG 160 80 VCC
FLAG 400 352 0
FLAG 208 -144 VCC
FLAG 304 256 VSS
FLAG 304 16 VCC
FLAG 720 256 0
FLAG 720 112 VSS
FLAG -32 336 0
FLAG 16 112 0
SYMBOL LM13700 128 64 R0
SYMATTR InstName U1
SYMBOL voltage 608 128 R0
WINDOW 123 0 0 Left 2
WINDOW 39 0 0 Left 2
SYMATTR InstName V1
SYMATTR Value 5
SYMBOL res 384 208 R0
SYMATTR InstName R3
SYMATTR Value 1Meg
SYMBOL voltage -32 208 R0
WINDOW 123 24 124 Left 2
WINDOW 39 0 0 Left 2
SYMATTR Value2 AC 1m
SYMATTR InstName V2
SYMATTR Value SINE(0 100m 1k)
SYMBOL current 208 -80 R0
WINDOW 123 0 0 Left 2
WINDOW 39 0 0 Left 2
SYMATTR InstName I1
SYMATTR Value 1m
SYMBOL res 288 32 R0
SYMATTR InstName R4
SYMATTR Value 1k
SYMBOL res 288 144 R0
SYMATTR InstName R5
SYMATTR Value 1k
SYMBOL voltage 720 128 R0
WINDOW 123 0 0 Left 2
WINDOW 39 0 0 Left 2
SYMATTR InstName V3
SYMATTR Value -5
TEXT 488 -152 Left 2 !.lib lm13700.sub
TEXT 488 -184 Left 2 !.tran 1u 10m
